Version 4
SHEET 1 1464 1568
WIRE 1312 -304 1104 -304
WIRE 1104 -256 1104 -304
WIRE 1104 -256 1072 -256
WIRE 1184 -256 1104 -256
WIRE 1024 -240 976 -240
WIRE 1184 -208 1184 -256
WIRE 1184 -208 1072 -208
WIRE -656 -176 -1024 -176
WIRE 976 -176 976 -240
WIRE 976 -176 -656 -176
WIRE -1152 -128 -1344 -128
WIRE 464 -128 96 -128
WIRE 96 -96 96 -128
WIRE 96 -96 -272 -96
WIRE 352 -96 96 -96
WIRE -1344 -80 -1344 -128
WIRE 352 -32 352 -96
WIRE 352 -32 288 -32
WIRE 416 -32 352 -32
WIRE -1152 -16 -1152 -128
WIRE -272 -16 -272 -96
WIRE -272 -16 -320 -16
WIRE -208 -16 -272 -16
WIRE 608 -16 464 -16
WIRE -80 0 -160 0
WIRE 288 16 288 -32
WIRE 416 16 288 16
WIRE -1344 32 -1344 0
WIRE -320 32 -320 -16
WIRE -208 32 -320 32
WIRE -672 96 -816 96
WIRE -384 96 -672 96
WIRE -80 112 -80 0
WIRE 416 112 416 64
WIRE 416 112 -80 112
WIRE 608 112 608 -16
WIRE 1008 112 608 112
WIRE -1152 128 -1152 64
WIRE -1024 128 -1024 -176
WIRE -1024 128 -1152 128
WIRE -384 128 -384 96
WIRE -208 128 -208 80
WIRE -208 128 -384 128
WIRE 416 160 416 112
WIRE -208 176 -208 128
WIRE -1152 192 -1152 128
WIRE -672 192 -896 192
WIRE -480 192 -672 192
WIRE -896 208 -896 192
WIRE 416 208 304 208
WIRE -208 224 -320 224
WIRE -1008 240 -1152 240
WIRE 608 240 608 112
WIRE 608 240 464 240
WIRE -80 256 -80 112
WIRE -80 256 -160 256
WIRE 304 256 304 208
WIRE 352 256 304 256
WIRE 416 256 352 256
WIRE -1360 272 -1408 272
WIRE -1200 272 -1280 272
WIRE -320 272 -320 224
WIRE -256 272 -320 272
WIRE -208 272 -256 272
WIRE -1008 288 -1008 240
WIRE -1008 288 -1152 288
WIRE -480 288 -480 192
WIRE -480 288 -560 288
WIRE -768 304 -816 304
WIRE -704 304 -768 304
WIRE 352 304 352 256
WIRE -384 320 -384 128
WIRE -384 320 -560 320
WIRE -256 320 -256 272
WIRE -1408 336 -1408 272
WIRE -1152 336 -1152 288
WIRE -1152 336 -1408 336
WIRE -1152 352 -1152 336
WIRE -448 688 -672 688
WIRE -144 688 -448 688
WIRE -672 832 -672 768
WIRE -1184 896 -1440 896
WIRE -144 944 -144 688
WIRE -1440 960 -1440 896
WIRE -512 1008 -528 1008
WIRE -416 1008 -512 1008
WIRE -176 1008 -416 1008
WIRE 1008 1008 1008 112
WIRE 1008 1008 16 1008
WIRE -512 1056 -512 1008
WIRE -1184 1072 -1184 896
WIRE -1440 1088 -1440 1040
WIRE -1040 1120 -1184 1120
WIRE -1408 1152 -1504 1152
WIRE -1232 1152 -1328 1152
WIRE -1184 1184 -1184 1168
WIRE -1040 1184 -1040 1120
WIRE -1040 1184 -1184 1184
WIRE -1184 1216 -1184 1184
WIRE -1008 1216 -1184 1216
WIRE -1184 1296 -1184 1216
WIRE -1184 1296 -1200 1296
WIRE 1072 1360 1072 -160
WIRE -1504 1392 -1504 1152
WIRE -1200 1392 -1200 1376
WIRE -1200 1392 -1504 1392
WIRE 1168 1408 1072 1408
WIRE -1200 1424 -1200 1392
WIRE 1168 1456 1168 1408
WIRE 1168 1456 1072 1456
WIRE -1008 1488 -1008 1216
WIRE -704 1488 -1008 1488
WIRE -256 1488 -704 1488
WIRE 1024 1488 1024 1440
WIRE 1024 1488 -128 1488
WIRE 1072 1504 1072 1456
FLAG -256 320 0
FLAG 352 304 0
FLAG -672 832 0
FLAG -1344 32 0
FLAG -1440 1088 0
FLAG -1200 1424 0
FLAG -1152 352 0
FLAG -656 -176 PUEN
IOPIN -656 -176 In
FLAG -672 96 Y
IOPIN -672 96 Out
FLAG -672 192 PI
IOPIN -672 192 In
FLAG -448 688 EN
IOPIN -448 688 In
FLAG -512 1136 0
FLAG -704 1488 PDEN
IOPIN -704 1488 In
FLAG -416 1008 A
IOPIN -416 1008 In
FLAG 1312 -224 0
FLAG 1072 1504 0
FLAG -768 304 PO
IOPIN -768 304 Out
FLAG -896 288 0
FLAG 464 -48 0
SYMBOL res -1168 -32 R0
SYMATTR InstName R1
SYMATTR Value 10K
SYMBOL res -1216 1280 R0
WINDOW 3 35 76 Left 2
SYMATTR Value 10K
SYMATTR InstName R2
SYMBOL voltage -672 672 R0
WINDOW 123 0 0 Left 0
WINDOW 39 0 0 Left 0
WINDOW 3 24 44 Left 2
SYMATTR Value PWL(0 0 1.999 0 2 0 3.999 0)
SYMATTR InstName V1
SYMBOL voltage -512 1040 R0
WINDOW 123 0 0 Left 0
WINDOW 39 0 0 Left 0
WINDOW 3 24 44 Left 2
SYMATTR Value PWL( 0 0 1.999 0 2 1.8 3.999 1.8)
SYMATTR InstName V2
SYMBOL voltage 1312 -320 R0
WINDOW 123 0 0 Left 0
WINDOW 39 0 0 Left 0
SYMATTR InstName V3
SYMATTR Value 1.8
SYMBOL res -1264 256 R90
WINDOW 0 0 56 VBottom 2
WINDOW 3 32 56 VTop 2
SYMATTR InstName R3
SYMATTR Value 10K
SYMBOL res -1312 1136 R90
WINDOW 3 35 56 VTop 2
WINDOW 0 0 56 VBottom 2
SYMATTR Value 10K
SYMATTR InstName R4
SYMBOL Inverter -208 1488 R0
SYMATTR InstName X1
SYMBOL NAND -608 304 R0
SYMATTR InstName X2
SYMBOL pmos4 -160 80 R180
SYMATTR InstName M1
SYMATTR Value CMOSP
SYMATTR Value2 l=180n w=900n m=1
SYMBOL nmos4 -160 176 M0
WINDOW 3 59 65 Left 2
SYMATTR Value CMOSN
SYMATTR InstName M2
SYMATTR Value2 l=180n w=360n
SYMBOL pmos4 464 64 R180
SYMATTR InstName M3
SYMATTR Value CMOSP
SYMATTR Value2 l=180n w=900n m=1
SYMBOL nmos4 464 160 M0
WINDOW 3 59 65 Left 2
SYMATTR Value CMOSN
SYMATTR InstName M4
SYMATTR Value2 l=180n w=360n
SYMBOL nmos4 -1200 192 R0
WINDOW 3 59 65 Left 2
SYMATTR Value CMOSN
SYMATTR InstName M5
SYMATTR Value2 l=180n w=360n
SYMBOL nmos4 -1232 1072 R0
WINDOW 3 59 65 Left 2
SYMATTR Value CMOSN
SYMATTR InstName M6
SYMATTR Value2 l=180n w=360n
SYMBOL nmos4 1024 -160 M180
WINDOW 3 59 65 Left 2
SYMATTR Value CMOSN
SYMATTR InstName M7
SYMATTR Value2 l=180n w=360n
SYMBOL pmos4 1024 1360 R0
SYMATTR InstName M8
SYMATTR Value CMOSP
SYMATTR Value2 l=180n w=900n m=1
SYMBOL voltage -896 192 R0
WINDOW 3 24 44 Invisible 2
WINDOW 123 0 0 Left 0
WINDOW 39 0 0 Left 0
SYMATTR Value PWL(0 0 0.9999 0 1 1.8 1.999 1.8 2 0 3.9999 0 4 1.8 5.9999 1.8 6 1.8 7.9999 1.8 8 0 9.9999 0 10 0 10.9999 0 11 1.8 11.9999 1.8 12 0 13.9999 0 14 1.8 15.9999 1.8)
SYMATTR InstName V4
SYMBOL Tristate -80 992 R0
SYMATTR InstName X3
SYMBOL voltage 464 -144 R0
WINDOW 123 0 0 Left 0
WINDOW 39 0 0 Left 0
SYMATTR InstName V5
SYMATTR Value 1.8
SYMBOL voltage -1344 -96 R0
WINDOW 123 0 0 Left 0
WINDOW 39 0 0 Left 0
WINDOW 3 24 44 Invisible 2
SYMATTR Value PWL(0 0 0.9999 0 1 1.8 1.9999 1.8 2 0 2.9999 0 3 1.8 3.9999 1.8 4 0 4.9999 0 5 1.8 5.9999 1.8 6 1.8 7.9999 1.8 8 1.8 9.9999 1.8 10 1.8 11.9999 1.8 12 0 13.9999 0 14 0 15.9999 0)
SYMATTR InstName V6
SYMBOL voltage -1440 944 R0
WINDOW 123 0 0 Left 0
WINDOW 39 0 0 Left 0
WINDOW 3 24 44 Invisible 2
SYMATTR Value PWL(0 0 0.9999 0 1 1.8 1.9999 1.8 2 0 2.9999 0 3 1.8 3.9999 1.8 4 0 4.9999 0 5 1.8 5.9999 1.8 6 1.8 7.9999 1.8 8 1.8 9.9999 1.8 10 0 11.9999 0 12 1.8 13.9999 1.8 14 1.8 15.9999 1.8)
SYMATTR InstName V7
TEXT -1408 1552 Left 2 !.tran 1 4s 0s 0.1s
TEXT 1168 1384 Left 2 !.include PMOS-180nm.lib
TEXT 1088 -144 Left 2 !.include NMOS-180nm.lib
TEXT -72 1056 Left 2 ;Tristate
TEXT -248 1432 Left 2 ;inverter
TEXT -648 376 Left 2 ;NAND
